LAMMPS (29 Aug 2024 - Update 1)
variable temp index 298.15  # Temperature in Kelvin

units real
atom_style full

# 計算總原子數
variable total_atoms equal count(all)
Total atoms loaded: 0

# 其他模擬設置

special_bonds lj/coul 0.0 0.0 0.5
kspace_style ewald 1.0e-4           # 設定 Ewald 方法，收斂精度設為 1.0e-4
pair_style lj/cut/coul/long 10.65960  # 適用於 Lennard-Jones 和 長程庫倫相互作用

pair_modify mix arithmetic tail no       # 混合規則與尾部修正
bond_style harmonic
angle_style cosine/squared

# 讀取 data 文件
read_data init.data
Reading data file ...
  orthogonal box = (0 0 0) to (21.67 21.67 21.67)
  reading atoms ...
  1020 atoms
  reading velocities ...
  1020 velocities
  scanning bonds ...
  scanning angles ...
  orthogonal box = (0 0 0) to (21.67 21.67 21.67)
  reading bonds ...
  680 bonds
  reading angles ...
  340 angles
Finding 1-2 1-3 1-4 neighbors ...
     2 = max # of 1-2 neighbors
     1 = max # of 1-3 neighbors
     1 = max # of 1-4 neighbors
     2 = max # of special neighbors

# 配置力場參數
#pair_coeff 1 1 0.1020 3.188               # Lennard-Jones 參數 for O-O
#pair_coeff 2 2 0.0 1.0                    # Lennard-Jones 參數 for H-H
#pair_coeff 1 2 0.0 1.0                    # Lennard-Jones 參數 for O-H
#bond_coeff 1 450.0 0.9572                 # 鍵長與鍵力常數
#angle_coeff 1 55.0 104.52                 # 鍵角與鍵力常數

pair_coeff 1 1 0.1848 3.165541325   # O-O interactions
pair_coeff 2 2 0.01 0.8018088463        # H-H interactions
#pair_coeff 1 2 0.0429 2.2266   # O-H interactions (Lorentz-Berthelot mixing rules)
bond_coeff 1 500.0 1.0         # OH bond: k_b = 500 kcal/mol/Å², equilibrium length = 1.0 Å
angle_coeff 1 67.5 109.47     # HOH angle: k_θ = 120 kcal/mol/rad², equilibrium angle = 109.47°

# 設置分組
group water type 1 2
1020 atoms in group water

# 鄰近列表設置
neighbor 2.0 bin
neigh_modify every 1 delay 1 check yes

# 初始化速度
timestep 1.0                           # 時間步長（飛秒）

# 溫控（NVT）
fix integrate all nvt temp 298.15 298.15 166

# 輸出設置
thermo_style custom step temp press pxx pyy pzz pxy pxz pyz pe ke etotal
#thermo_style custom step temp press pxx pyy pzz pxy pxz pyz pe ke etotal density atoms
thermo 1000                               # 每 1000 步輸出

dump myDump all custom 1000 dump.atom id type x y z vx vy vz

# 實際模擬運行
run 10000000

CITE-CITE-CITE-CITE-CITE-CITE-CITE-CITE-CITE-CITE-CITE-CITE-CITE

Your simulation uses code contributions which should be cited:

- Type Label Framework: https://doi.org/10.1021/acs.jpcb.3c08419

@Article{Gissinger24,
 author = {Jacob R. Gissinger, Ilia Nikiforov, Yaser Afshar, Brendon Waters, Moon-ki Choi, Daniel S. Karls, Alexander Stukowski, Wonpil Im, Hendrik Heinz, Axel Kohlmeyer, and Ellad B. Tadmor},
 title = {Type Label Framework for Bonded Force Fields in LAMMPS},
 journal = {J. Phys. Chem. B},
 year =    2024,
 volume =  128,
 number =  13,
 pages =   {3282–-3297}
}

CITE-CITE-CITE-CITE-CITE-CITE-CITE-CITE-CITE-CITE-CITE-CITE-CITE

Ewald initialization ...
  G vector (1/distance) = 0.23880848
  estimated absolute RMS force accuracy = 0.033265155
  estimated relative force accuracy = 0.00010017703
  KSpace vectors: actual max1d max3d = 257 5 665
                  kxmax kymax kzmax  = 5 5 5
Generated 1 of 1 mixed pair_coeff terms from arithmetic mixing rule
Step          Temp          Press           Pxx            Pyy            Pzz            Pxy            Pxz            Pyz           PotEng         KinEng         TotEng
0   298.29208      14763.682      22250.388     -2931.0941      24971.752     -34.720197     -172.9316      -25.12145      -219.26533      906.04591      686.78057
Averages over the last 5001 of 10001 rows, steps 5000000 to 10000000:
Temp Press Pxx Pyy Pzz Pxy Pxz Pyz PotEng KinEng TotEng
297.882 548.345 543.204 563.466 538.363 -23.1924 -18.6893 -16.6685 -3038.72 904.8 -2133.92
Loop time of 26694.2 on 8 procs for 10000000 steps with 1020 atoms

# 保存數據與輸出速度
write_data tip3p_flexible_nvt.data nocoeff
System init for write_data ...
Ewald initialization ...
  G vector (1/distance) = 0.23880848
  estimated absolute RMS force accuracy = 0.033265155
  estimated relative force accuracy = 0.00010017703
  KSpace vectors: actual max1d max3d = 257 5 665
                  kxmax kymax kzmax  = 5 5 5
Generated 1 of 1 mixed pair_coeff terms from arithmetic mixing rule
